9
Generated by /home/olav/dev/py/zmat/zmat2xyz.py
C   0.000000   0.000000   0.000000
C   1.540000   0.000000   0.000000
O  -0.476000   1.346331   0.000000
H   1.905000  -1.032376   0.000000
H  -0.365000  -0.516188   0.894064
H  -0.365000  -0.516188  -0.894064
H   1.905000   0.516188   0.894064
H   1.905000   0.516188  -0.894064
H  -1.442101   1.304637  -0.000000
