18
Generated by /home/olav/dev/py/zmat/zmat2xyz.py
C   0.000000   0.000000   0.000000
C   1.500000   0.000000   0.000000
C   2.000000   1.414214   0.000000
C   1.500000   2.121320   1.224745
C  -0.000000   2.121320   1.224745
C  -0.500000   0.707107   1.224745
H  -0.366667   0.518545  -0.898146
H  -0.366667  -1.037090  -0.000000
H   1.866667  -0.518545  -0.898146
H   1.866667  -0.518545   0.898146
H   1.633333   1.932759  -0.898146
H   3.100000   1.414214   0.000000
H   1.866667   3.158410   1.224745
H   1.866667   1.602775   2.122891
H  -0.366667   2.639865   0.326599
H  -0.366667   2.639865   2.122891
H  -1.600000   0.707107   1.224745
H  -0.133333   0.188562   2.122891
