14
Generated by /home/olav/dev/py/zmat/zmat2xyz.py
C   0.000000   0.000000   0.000000
O   1.410000   0.000000   0.000000
C   1.880000   1.329361   0.000000
C   1.366667   2.055324   1.257405
O  -0.043333   2.055324   1.257405
C  -0.513333   0.725963   1.257405
H  -0.365000   0.516188  -0.894064
H  -0.365000  -1.032376  -0.000000
H   1.515000   1.845549  -0.894064
H   2.975000   1.329361  -0.000000
H   1.731667   3.087700   1.257405
H   1.731667   1.539136   2.151468
H  -1.608333   0.725963   1.257405
H  -0.148333   0.209775   2.151468
